*SPEF "IEEE 1481-1998"
*DESIGN "counter"
*DATE "Fri May 22 20:07:30 2026"
*VENDOR "Cadence Design Systems, Inc."
*PROGRAM "Innovus"
*VERSION "25.13-s088_1"
*DESIGN_FLOW "COUPLING C" "PIN_CAP NONE" "NAME_SCOPE LOCAL"
*DIVIDER /
*DELIMITER :
*BUS_DELIMITER []
*T_UNIT 1 NS
*C_UNIT 1 PF
*R_UNIT 1 OHM
*L_UNIT 1 HENRY

// MMMC spef file for corner 'default_rc'

*NAME_MAP

*1 clk
*2 rst_n
*3 en
*4 up_down
*5 load
*6 d[15]
*7 d[14]
*8 d[13]
*9 d[12]
*10 d[11]
*11 d[10]
*12 d[9]
*13 d[8]
*14 d[7]
*15 d[6]
*16 d[5]
*17 d[4]
*18 d[3]
*19 d[2]
*20 d[1]
*21 d[0]
*22 q[15]
*23 q[14]
*24 q[13]
*25 q[12]
*26 q[11]
*27 q[10]
*28 q[9]
*29 q[8]
*30 q[7]
*31 q[6]
*32 q[5]
*33 q[4]
*34 q[3]
*35 q[2]
*36 q[1]
*37 q[0]
*38 tc
*39 borrow
*40 n_0
*41 n_1
*42 n_2
*43 n_3
*44 n_4
*45 n_5
*46 n_6
*47 n_7
*48 n_8
*49 n_9
*50 n_10
*51 n_11
*52 n_12
*53 n_13
*54 n_14
*55 n_15
*56 n_16
*57 n_17
*58 n_18
*59 n_19
*60 n_20
*61 n_21
*62 n_22
*63 n_23
*64 n_24
*65 n_25
*66 n_26
*67 n_27
*68 n_28
*69 n_29
*70 n_30
*71 n_31
*72 n_32
*73 n_33
*74 n_34
*75 n_35
*76 n_36
*77 n_37
*78 n_38
*79 n_39
*80 n_40
*81 n_41
*82 n_43
*83 n_44
*84 n_45
*85 n_46
*86 n_47
*87 n_48
*88 n_49
*89 n_50
*90 n_51
*91 n_52
*92 n_53
*93 n_54
*94 n_55
*95 n_56
*96 n_57
*97 n_58
*98 n_59
*99 n_60
*100 n_61
*101 n_62
*102 n_63
*103 n_64
*104 n_65
*105 n_67
*106 n_68
*107 n_69
*108 n_70
*109 n_71
*110 n_72
*111 n_73
*112 n_74
*113 n_75
*114 n_76
*115 n_77
*116 q_reg\[15\]
*117 q_reg\[14\]
*118 g2354__2398
*119 g2356__5107
*120 q_reg\[13\]
*121 g2361__6260
*122 g2362__4319
*123 q_reg\[12\]
*124 g2367__8428
*125 q_reg\[11\]
*126 g2360__5526
*127 g2365__6783
*128 g2374__3680
*129 g2375__1617
*130 g2372__2802
*131 q_reg\[10\]
*132 g2376__1705
*133 q_reg\[9\]
*134 g2366__5122
*135 g2371__8246
*136 g2380__7098
*137 g2382__6131
*138 g2368__1881
*139 g2384__5115
*140 q_reg\[8\]
*141 q_reg\[7\]
*142 g2381__7482
*143 g2383__4733
*144 g2373__6161
*145 g2390__9315
*146 g2379__9945
*147 g2385__2883
*148 g2388__2346
*149 q_reg\[6\]
*150 g2378__1666
*151 g2387__7410
*152 g2389__6417
*153 g2396__5477
*154 g2395__2398
*155 g2386__5107
*156 g2392__6260
*157 g2394__4319
*158 g2399__8428
*159 g2397__5526
*160 g2391__6783
*161 g2393__3680
*162 g2403__1617
*163 g2398__2802
*164 g2404__1705
*165 g2405__5122
*166 g2408__8246
*167 g2410__7098
*168 g2407__6131
*169 g2401__1881
*170 g2402__5115
*171 g2406__7482
*172 g2413__4733
*173 g2416__6161
*174 g2411__9315
*175 q_reg\[3\]
*176 g2420__9945
*177 g2412__2883
*178 g2415__2346
*179 g2417__1666
*180 q_reg\[2\]
*181 g2419__7410
*182 g2421__6417
*183 g2422__5477
*184 g2423__2398
*185 g2426__5107
*186 g2425__6260
*187 g2427__4319
*188 g2428__8428
*189 g2429__5526
*190 g2430__6783
*191 g2431__3680
*192 g2432__1617
*193 g2433__2802
*194 g2434__1705
*195 g2435__5122
*196 g2436
*197 g2438__8246
*198 g2437__7098
*199 g2439__6131
*200 q_reg\[4\]
*201 q_reg\[1\]
*202 q_reg\[0\]
*203 q_reg\[5\]


*PORTS

*1 I *C 0 0
*2 I *C 0 0
*3 I *C 0 0
*4 I *C 0 0
*5 I *C 0 0
*6 I *C 0 0
*7 I *C 0 0
*8 I *C 0 0
*9 I *C 0 0
*10 I *C 0 0
*11 I *C 0 0
*12 I *C 0 0
*13 I *C 0 0
*14 I *C 0 0
*15 I *C 0 0
*16 I *C 0 0
*17 I *C 0 0
*18 I *C 0 0
*19 I *C 0 0
*20 I *C 0 0
*21 I *C 0 0
*22 O *C 0 0
*23 O *C 0 0
*24 O *C 0 0
*25 O *C 0 0
*26 O *C 0 0
*27 O *C 0 0
*28 O *C 0 0
*29 O *C 0 0
*30 O *C 0 0
*31 O *C 0 0
*32 O *C 0 0
*33 O *C 0 0
*34 O *C 0 0
*35 O *C 0 0
*36 O *C 0 0
*37 O *C 0 0
*38 O *C 0 0
*39 O *C 0 0


*D_NET *1 0.0361277

*CONN
*P *1 I *C 0 0 *L 0
*I *203:CP I *C 35.59 13.25 *L 0.00289 *D dfnrb1
*I *202:CP I *C 67.51 18.11 *L 0.00289 *D dfnrb1
*I *201:CP I *C 58.55 35.65 *L 0.00289 *D dfnrb1
*I *200:CP I *C 54.07 18.11 *L 0.00289 *D dfnrb1
*I *180:CP I *C 63.59 51.705 *L 0.00289 *D dfnrq1
*I *175:CP I *C 49.59 46.855 *L 0.00289 *D dfnrq1
*I *149:CP I *C 16.55 13.255 *L 0.00289 *D dfnrq1
*I *141:CP I *C 45.67 35.655 *L 0.00289 *D dfnrq1
*I *140:CP I *C 11.51 29.305 *L 0.00289 *D dfnrq1
*I *133:CP I *C 40.07 51.705 *L 0.00289 *D dfnrq1
*I *131:CP I *C 10.39 51.705 *L 0.00289 *D dfnrq1
*I *125:CP I *C 29.99 62.905 *L 0.00289 *D dfnrq1
*I *123:CP I *C 10.39 62.905 *L 0.00289 *D dfnrq1
*I *120:CP I *C 42.87 58.055 *L 0.00289 *D dfnrq1
*I *117:CP I *C 54.07 58.055 *L 0.00289 *D dfnrq1
*I *116:CP I *C 68.07 58.055 *L 0.00289 *D dfnrq1

*CAP
1 *203:CP 6.95853e-05
2 *202:CP 6.95853e-05
3 *201:CP 6.95853e-05
4 *200:CP 6.95853e-05
5 *180:CP 6.95853e-05
6 *175:CP 6.95853e-05
7 *149:CP 6.95853e-05
8 *141:CP 6.95853e-05
9 *140:CP 6.95853e-05
10 *133:CP 6.95853e-05
11 *131:CP 6.95853e-05
12 *125:CP 6.95853e-05
13 *123:CP 6.95853e-05
14 *120:CP 6.95853e-05
15 *117:CP 6.95853e-05
16 *116:CP 6.95853e-05
17 *1:17 4.81076e-05
18 *1:18 4.81076e-05
19 *1:19 4.81076e-05
20 *1:20 4.81076e-05
21 *1:21 4.92785e-05
22 *1:22 4.92785e-05
23 *1:23 3.94763e-05
24 *1:24 3.94763e-05
25 *1:25 5.93483e-05
26 *1:26 5.93483e-05
27 *1:27 4.89774e-05
28 *1:28 4.89774e-05
29 *1:29 4.86763e-05
30 *1:30 4.86763e-05
31 *1:31 3.90414e-05
32 *1:32 3.90414e-05
33 *1:33 0.00206421
34 *1:34 0.00172127
35 *1:35 0.000609139
36 *1:36 0.000978075
37 *1:37 0.000357762
38 *1:38 0.000357762
39 *1:39 0.000727669
40 *1:40 6.62399e-05
41 *1:41 6.62399e-05
42 *1:42 8.33686e-05
43 *1:43 8.33686e-05
44 *1:44 0.000619042
45 *1:45 0.000892432
46 *1:46 0.000289147
47 *1:47 0.0010129
48 *1:48 0.00144674
49 *1:49 0.000103073
50 *1:50 0.000103073
51 *1:51 0.000651024
52 *1:52 0.00021722
53 *1:53 4.33905e-05
54 *1:54 4.33905e-05
55 *1:55 0.00171327
56 *1:56 0.000788957
57 *1:57 6.93846e-05
58 *1:58 0.000993699
59 *1:59 4.96465e-05
60 *1:60 4.96465e-05
61 *1:61 4.96465e-05
62 *1:62 4.96465e-05
63 *1:63 4.96465e-05
64 *1:64 4.96465e-05
65 *1:65 5.75752e-05
66 *1:66 5.75752e-05
67 *1:67 0.00120597
68 *1:68 0.00120597
69 *1:83 0.000352209
70 *1:84 0.00104669
71 *1:85 9.92595e-05
72 *1:86 0.00215664
73 *1:87 5.99504e-05
74 *1:88 0.00219244
75 *1:89 0.000746069
76 *1:90 9.92595e-05
77 *1:91 0.000307079
78 *1:92 0.000307079
79 *1:93 0.000341704
80 *1:94 0.000341704
81 *1:95 0.00110373
82 *1:96 0.00110373
83 *1:97 0.000722717
84 *1:98 5.99504e-05
85 *1:99 0.00104866
86 *1:100 0.000341704
87 *1:101 3.88741e-05
88 *1:102 3.88741e-05
89 *1:35 *60:8 0.00024603
90 *1:36 *60:6 0.00024603
91 *1:36 *66:15 5.928e-05
92 *1:39 *66:11 5.928e-05
93 *1:39 *66:12 6.342e-05
94 *1:33 *66:10 6.342e-05
95 *1:39 *66:15 5.928e-05
96 *1:33 *66:11 5.928e-05
97 *1:39 *66:9 3.557e-05
98 *1:33 *66:8 3.557e-05
99 *1:39 *69:11 0.00036904
100 *1:33 *69:12 0.00036904
101 *1:33 *69:12 0.00015377
102 *1:34 *69:13 0.00015377
103 *1:35 *69:25 5.928e-05
104 *1:36 *69:24 5.928e-05
105 *1:36 *69:25 3.557e-05
106 *1:39 *69:24 3.557e-05
107 *1:36 *69:24 9.485e-05
108 *1:39 *69:22 9.485e-05
109 *1:36 *69:22 4.743e-05
110 *1:39 *69:21 4.743e-05
111 *1:39 *69:22 3.557e-05
112 *1:33 *69:21 3.557e-05
113 *1:35 *69:9 1.908e-05
114 *1:36 *69:10 1.908e-05
115 *1:35 *42:8 0.00013042
116 *1:36 *42:7 0.00013042

*RES
1 *1:65 *116:CP 6.00006
2 *1:25 *120:CP 6.00006
3 *1:49 *117:CP 6.00006
4 *1:66 *1:65 0.200011
5 *1:26 *1:25 0.200011
6 *1:50 *1:49 0.200011
7 *1:58 *1:66 6.00006
8 *1:57 *1:26 6.00006
9 *1:55 *1:50 6.00006
10 *1:55 *1:58 3.99996
11 *1:24 *133:CP 6.00006
12 *1:72 *1:24 0.119751
13 *1:57 *1:56 0.160008
14 *1:56 *1:55 3.04003
15 *1:24 *1:23 0.0400021
16 *1:94 *1:56 6.00006
17 *1:101 *180:CP 6.00006
18 *1:71 *1:101 0.119751
19 *1:52 *1:23 6.00006
20 *1:93 *1:94 1.43995
21 *1:101 *1:102 0.0400021
22 *1:28 *175:CP 6.00006
23 *1:76 *1:28 0.0830715
24 *1:52 *1:51 0.960051
25 *1:51 *1:93 6.00006
26 *1:47 *1:102 6.00006
27 *1:28 *1:27 0.0800042
28 *1:51 *1:48 1.75997
29 *1:48 *1:47 3.99996
30 *1:98 *1:27 6.00006
31 *1:75 *1:98 0.0674796
32 *1:100 *1:48 6.00006
33 *1:30 *201:CP 6.00006
34 *1:77 *1:30 0.0830715
35 *1:99 *1:98 6.00006
36 *1:99 *1:100 1.43995
37 *1:30 *1:29 0.0800042
38 *1:43 *203:CP 6.00006
39 *1:60 *141:CP 6.00006
40 *1:78 *1:60 0.0830715
41 *1:97 *1:99 3.20004
42 *1:44 *1:29 6.00006
43 *1:43 *1:42 0.240013
44 *1:60 *1:59 0.0800042
45 *1:45 *1:97 6.00006
46 *1:45 *1:44 2.56001
47 *1:54 *202:CP 6.00006
48 *1:80 *1:54 0.119751
49 *1:41 *1:42 6.00006
50 *1:46 *1:59 6.00006
51 *1:46 *1:45 1.12006
52 *1:32 *200:CP 6.00006
53 *1:81 *1:32 0.119751
54 *1:54 *1:53 0.0400021
55 *1:41 *1:40 0.160008
56 *1:96 *1:46 6.00006
57 *1:32 *1:31 0.0400021
58 *1:35 *1:53 6.00006
59 *1:20 *149:CP 6.00006
60 *1:82 *1:20 0.0830715
61 *1:91 *1:40 6.00006
62 *1:95 *1:96 4.96001
63 *1:36 *1:31 6.00006
64 *1:36 *1:35 3.83995
65 *1:20 *1:19 0.0800042
66 *1:61 *140:CP 6.00006
67 *1:91 *1:92 1.27994
68 *1:39 *1:95 6.00006
69 *1:39 *1:36 2.4
70 *1:37 *1:19 6.00006
71 *1:79 *1:62 0.0830715
72 *1:62 *1:61 0.0800042
73 *1:33 *1:92 6.00006
74 *1:33 *1:39 2.72002
75 *1:38 *1:37 1.75997
76 *1:90 *1:62 6.00006
77 *1:34 *1:33 7.36001
78 *1:83 *1:38 6.00006
79 *1:63 *131:CP 6.00006
80 *1:85 *1:90 0.320017
81 *1:84 *1:34 6.00006
82 *1:83 *1:84 1.43995
83 *1:74 *1:64 0.0830715
84 *1:64 *1:63 0.0800042
85 *1:86 *1:85 6.00006
86 *1:84 *1:86 3.04003
87 *1:73 *1:87 0.0674796
88 *1:87 *1:64 6.00006
89 *1:17 *123:CP 6.00006
90 *1:86 *1:88 6.39996
91 *1:88 *1:87 6.00006
92 *1:70 *1:18 0.0830715
93 *1:18 *1:17 0.0800042
94 *1:88 *1:89 3.20004
95 *1:68 *1:18 6.00006
96 *1:68 *1:89 6.00006
97 *1:21 *125:CP 6.00006
98 *1:68 *1:67 5.60004
99 *1:22 *1:21 0.0800042
100 *1:22 *1:67 6.00006
101 *1:69 *1:22 0.0830715
102 *1:38 *1 8.37565231
*END

*D_NET *2 0.0012635

*CONN
*P *2 I *C 0 0 *L 0
*I *199:A1 I *C 11.76 17.92 *L 0.00345 *D an02d1
*I *198:A2 I *C 16.08 18.26 *L 0.005 *D nd12d1

*CAP
1 *199:A1 1.86589e-05
2 *198:A2 6.9598e-05
3 *2:3 5.75116e-05
4 *2:4 0.000101402
5 *2:5 0.000101402
6 *2:6 0.00031532
7 *2:7 0.000108229
8 *2:8 8.33203e-05
9 *2:9 0.00031532
10 *2:10 9.27412e-05

*RES
1 *2:10 *198:A2 5.99992
2 *2:7 *2:10 0.240066
3 *2:7 *2:8 0.319931
4 *2:9 *2:8 5.99992
5 *2:6 *2:9 1.11999
6 *2:5 *2:6 5.99992
7 *2:4 *2:5 0.319931
8 *2:3 *2:4 5.99992
9 *2:3 *199:A1 0.0973497
10 *2:3 *2 10.3234777
*END

*D_NET *3 0.00238184

*CONN
*P *3 I *C 0 0 *L 0
*I *193:A I *C 75.99 29.565 *L 0.00518 *D aon211d1
*I *192:B I *C 73.97 24.93 *L 0.00625 *D ah01d1
*I *190:A I *C 72.63 35.395 *L 0.00518 *D aon211d1

*CAP
1 *193:A 6.9599e-05
2 *192:B 1.69117e-05
3 *190:A 6.9599e-05
4 *3:4 0.000412528
5 *3:5 0.00078492
6 *3:6 9.4164e-05
7 *3:7 0.000108788
8 *3:8 0.000220163
9 *3:9 5.57654e-05
10 *3:10 6.57663e-05
11 *3:11 7.23897e-05
12 *3:12 0.000292709
13 *3:13 0.000118514

*RES
1 *3:9 *192:B 0.086861
2 *3:10 *3:9 6.00017
3 *3:10 *3:11 0.160199
4 *3:13 *193:A 6.00017
5 *3:8 *3:11 0.160199
6 *3:12 *3:13 0.409859
7 *3:8 *3:5 0.799953
8 *3:5 *3:12 0.893056
9 *3:5 *3:4 1.76011
10 *3:7 *190:A 6.00017
11 *3:6 *3:4 0.0670962
12 *3:6 *3:7 0.319877
13 *3:8 *3 34.086956
*END

*D_NET *4 0.00201937

*CONN
*P *4 I *C 0 0 *L 0
*I *197:A1 I *C 74.67 35.56 *L 0.0051 *D nr02d1
*I *194:A3 I *C 71.68 29.12 *L 0.00344 *D an03d1
*I *193:C2 I *C 74.48 29.68 *L 0.00486 *D aon211d1

*CAP
1 *197:A1 8.33826e-06
2 *194:A3 6.9599e-05
3 *193:C2 6.9599e-05
4 *4:4 0.0002788
5 *4:5 0.0002788
6 *4:6 0.000109942
7 *4:7 0.000109942
8 *4:9 0.000168612
9 *4:10 0.000168612
10 *4:11 4.71878e-05
11 *4:10 *45:4 0.00015377
12 *4:9 *45:5 0.00015377
13 *4:4 *44:6 4.743e-05
14 *4:5 *44:7 4.743e-05
15 *4:4 *44:4 0.00015377
16 *4:5 *44:5 0.00015377

*RES
1 *4:7 *194:A3 5.99987
2 *4:7 *4:6 0.319922
3 *4:9 *4:6 5.99987
4 *4:11 *197:A1 0.0433339
5 *4:9 *4:10 0.799805
6 *4:4 *4:11 5.99987
7 *4:5 *193:C2 5.99987
8 *4:5 *4:10 5.99987
9 *4:5 *4:4 1.44018
10 *4:8 *4:5 0.157821
11 *194:A3 *4 35.0608673
*END

*D_NET *5 0.000654389

*CONN
*P *5 I *C 0 0 *L 0
*I *199:A2 I *C 12.32 17.92 *L 0.00381 *D an02d1
*I *198:A1 I *C 14.31 18.26 *L 0.00373 *D nd12d1

*CAP
1 *199:A2 6.95997e-05
2 *198:A1 6.95997e-05
3 *5:4 5.99405e-05
4 *5:5 0.00016676
5 *5:6 5.6149e-05
6 *5:7 0.00016676
7 *5:8 2.69498e-05
8 *5:9 3.86295e-05

*RES
1 *5:9 *198:A1 5.99998
2 *5:8 *5:9 0.0399635
3 *5:6 *5:8 0.079927
4 *5:7 *5:6 5.99998
5 *5:5 *5:7 0.399956
6 *5:4 *5:5 5.99998
7 *5:4 *199:A2 5.99998
8 *5:3 *5:4 0.157928
9 *199:A2 *5 10.518261
*END

*D_NET *6 0.0396183

*CONN
*P *6 I *C 0 0 *L 0
*I *118:B2 I *C 75.2 63.09 *L 0.00447 *D oaim22d1

*CAP
1 *6 0.01980915
2 *118:B2 0.01980915

*RES
1 *6 *118:B2 48.1009
*END

*D_NET *7 0.0333958

*CONN
*P *7 I *C 0 0 *L 0
*I *119:B2 I *C 53.51 63.06 *L 0.00471 *D aor22d1

*CAP
1 *7 0.0166979
2 *119:B2 0.0166979

*RES
1 *7 *119:B2 40.5461
*END

*D_NET *8 0.0309549

*CONN
*P *8 I *C 0 0 *L 0
*I *121:B2 I *C 44.96 63.09 *L 0.00447 *D oaim22d1

*CAP
1 *8 0.01547747
2 *121:B2 0.01547747

*RES
1 *8 *121:B2 37.5826
*END

*D_NET *9 0.0214378

*CONN
*P *9 I *C 0 0 *L 0
*I *126:B2 I *C 16.96 57.87 *L 0.00447 *D oaim22d1

*CAP
1 *9 0.01071892
2 *126:B2 0.01071892

*RES
1 *9 *126:B2 26.0278
*END

*D_NET *10 0.0275687

*CONN
*P *10 I *C 0 0 *L 0
*I *127:B2 I *C 38.33 57.9 *L 0.00471 *D aor22d1

*CAP
1 *10 0.01378433
2 *127:B2 0.01378433

*RES
1 *10 *127:B2 33.4713
*END

*D_NET *11 0.017427

*CONN
*P *11 I *C 0 0 *L 0
*I *134:B2 I *C 14.16 46.67 *L 0.00447 *D oaim22d1

*CAP
1 *11 0.00871351
2 *134:B2 0.00871351

*RES
1 *11 *134:B2 21.1583
*END

*D_NET *12 0.0264456

*CONN
*P *12 I *C 0 0 *L 0
*I *138:B2 I *C 45.61 46.7 *L 0.00471 *D aor22d1

*CAP
1 *12 0.01322282
2 *138:B2 0.01322282

*RES
1 *12 *138:B2 32.1078
*END

*D_NET *13 0.0142184

*CONN
*P *13 I *C 0 0 *L 0
*I *144:B2 I *C 14.16 35.47 *L 0.00447 *D oaim22d1

*CAP
1 *13 0.00710918
2 *144:B2 0.00710918

*RES
1 *13 *144:B2 17.2626
*END

*D_NET *14 0.0216842

*CONN
*P *14 I *C 0 0 *L 0
*I *146:B2 I *C 46.23 29.46 *L 0.00471 *D aor22d1

*CAP
1 *14 0.01084211
2 *146:B2 0.01084211

*RES
1 *14 *146:B2 26.327
*END

*D_NET *15 0.0109008

*CONN
*P *15 I *C 0 0 *L 0
*I *150:B2 I *C 19.76 18.29 *L 0.00447 *D oaim22d1

*CAP
1 *15 0.00545042
2 *150:B2 0.00545042

*RES
1 *15 *150:B2 13.2348
*END

*D_NET *16 0.0208563

*CONN
*P *16 I *C 0 0 *L 0
*I *155:B2 I *C 48.16 24.64 *L 0.0047 *D oaim21d1

*CAP
1 *16 0.01042813
2 *155:B2 0.01042813

*RES
1 *16 *155:B2 25.3217
*END

*D_NET *17 0.0220796

*CONN
*P *17 I *C 0 0 *L 0
*I *171:B2 I *C 64 13.07 *L 0.00447 *D oaim22d1

*CAP
1 *17 0.01103978
2 *171:B2 0.01103978

*RES
1 *17 *171:B2 26.807
*END

*D_NET *18 0.0301528

*CONN
*P *18 I *C 0 0 *L 0
*I *178:B2 I *C 53.36 51.89 *L 0.00447 *D oaim22d1

*CAP
1 *18 0.01507639
2 *178:B2 0.01507639

*RES
1 *18 *178:B2 36.6087
*END

*D_NET *19 0.0364097

*CONN
*P *19 I *C 0 0 *L 0
*I *181:B2 I *C 75.2 51.89 *L 0.00447 *D oaim22d1

*CAP
1 *19 0.01820483
2 *181:B2 0.01820483

*RES
1 *19 *181:B2 44.2052
*END

*D_NET *20 0.0259815

*CONN
*P *20 I *C 0 0 *L 0
*I *183:B2 I *C 61.2 29.49 *L 0.00447 *D oaim22d1

*CAP
1 *20 0.01299076
2 *183:B2 0.01299076

*RES
1 *20 *183:B2 31.5443
*END

*D_NET *21 0.0245548

*CONN
*P *21 I *C 0 0 *L 0
*I *188:B2 I *C 72.64 13.07 *L 0.00447 *D oaim22d1

*CAP
1 *21 0.01227741
2 *188:B2 0.01227741

*RES
1 *21 *188:B2 29.8122
*END

*D_NET *22 0.0040769

*CONN
*P *22 O *C 0 0 *L 0
*I *153:A2 I *C 71.93 68.6 *L 0.00234 *D nr23d1
*I *129:A2 I *C 64.63 68.345 *L 0.00472 *D nr03d1
*I *122:A1 I *C 70.84 64.64 *L 0.00628 *D xr02d1
*I *116:Q O *C 77.84 57.12 *L 0 *D dfnrq1

*CAP
1 *153:A2 1.89477e-05
2 *129:A2 0.000271522
3 *122:A1 2.90058e-05
4 *116:Q 6.96028e-05
5 *22:5 0.0006126
6 *22:6 0.00039077
7 *22:7 0.000312829
8 *22:8 0.000312829
9 *22:9 0.000310371
10 *22:10 0.000342873
11 *22:11 0.000342873
12 *22:12 0.000221446
13 *22:13 0.000141664
14 *22:14 6.78641e-05
15 *22:15 0.000106171
16 *22:16 0.000295723
17 *22:17 5.77967e-05
18 *22:18 0.000172007

*RES
1 *22:8 *116:Q 6.00007
2 *22:8 *22:7 0.960096
3 *22:10 *22:7 6.00007
4 *22:11 *22:10 1.59969
5 *153:A2 *22:17 0.097207
6 *22:14 *122:A1 0.097207
7 *22:6 *22:11 6.00007
8 *22:18 *22:17 6.00007
9 *22:15 *22:14 6.00007
10 *22:6 *22:5 1.59969
11 *22:5 *22:18 0.640298
12 *22:15 *22:16 0.319797
13 *22:16 *22:5 0.479696
14 *22:12 *22:16 0.479696
15 *22:12 *22:13 0.479696
16 *22:9 *22:13 6.00007
17 *129:A2 *22:9 1.46092
18 *22:6 *22 46.1634789
*END

*D_NET *23 0.00378663

*CONN
*P *23 O *C 0 0 *L 0
*I *153:A1 I *C 68.07 69.24 *L 0.00258 *D nr23d1
*I *129:A1 I *C 65.24 69.02 *L 0.00429 *D nr03d1
*I *128:S I *C 64.175 63.075 *L 0.00819 *D mx02d1
*I *124:A2 I *C 59.08 62.95 *L 0.00489 *D xr02d1
*I *117:Q O *C 63.84 57.12 *L 0 *D dfnrq1

*CAP
1 *153:A1 9.55062e-05
2 *129:A1 1.5501e-05
3 *128:S 1.66414e-05
4 *124:A2 1.89475e-05
5 *117:Q 6.95981e-05
6 *23:6 0.000329085
7 *23:7 0.000329085
8 *23:8 0.0005536
9 *23:9 0.000418551
10 *23:10 0.000356784
11 *23:11 6.58897e-05
12 *23:12 8.75066e-05
13 *23:13 0.000356784
14 *23:14 5.54909e-05
15 *23:15 0.000302349
16 *23:16 0.000219725
17 *23:17 0.000106226
18 *23:18 0.000139931
19 *23:19 0.00011828
20 *23:20 0.000131154

*RES
1 *23:20 *153:A1 0.473338
2 *23:19 *23:20 0.19505
3 *129:A1 *23:17 0.0732991
4 *23:17 *23:19 0.389479
5 *23:18 *23:17 5.99996
6 *23:16 *23:18 0.639814
7 *23:14 *128:S 0.086965
8 *23:15 *23:16 0.480171
9 *23:12 *117:Q 5.99996
10 *23:8 *23:14 5.99996
11 *23:8 *23:15 0.959721
12 *23:12 *23:9 0.319907
13 *23:9 *23:8 1.43989
14 *23:11 *124:A2 0.097525
15 *23:13 *23:9 5.99996
16 *23:6 *23:11 5.99996
17 *23:10 *23:13 1.43989
18 *23:7 *23:6 1.28025
19 *23:7 *23:10 5.99996
20 *23:7 *23 40.7095642
*END

*D_NET *24 0.00310524

*CONN
*P *24 O *C 0 0 *L 0
*I *158:A2 I *C 48.72 63.28 *L 0.00391 *D nd02d1
*I *139:A1 I *C 50.71 63.06 *L 0.00373 *D nd12d1
*I *130:A1 I *C 44.52 67.52 *L 0.00628 *D xr02d1
*I *120:Q O *C 52.64 57.12 *L 0 *D dfnrq1

*CAP
1 *158:A2 6.96032e-05
2 *139:A1 6.96032e-05
3 *130:A1 2.90113e-05
4 *120:Q 6.96032e-05
5 *24:5 0.000252602
6 *24:6 0.000259217
7 *24:7 6.72081e-05
8 *24:8 6.72081e-05
9 *24:9 0.00011093
10 *24:10 0.00011093
11 *24:11 0.00032194
12 *24:12 0.00032769
13 *24:13 0.000252112
14 *24:14 6.78581e-05
15 *24:15 0.000252112
16 *24:16 7.44484e-05
17 *24:17 0.000176308
18 *24:18 5.41925e-05
19 *24:19 0.000148182
20 *24:20 0.000176308
21 *24:21 0.000148182

*RES
1 *24:10 *120:Q 6.00027
2 *24:10 *24:9 0.319922
3 *24:21 *24:9 6.00027
4 *24:19 *24:21 0.479883
5 *24:18 *139:A1 6.00027
6 *24:12 *24:19 6.00027
7 *24:18 *24:11 0.0712869
8 *24:12 *24:11 1.44023
9 *24:20 *24:11 6.00027
10 *24:17 *24:20 0.639844
11 *24:16 *158:A2 6.00027
12 *24:16 *24:17 6.00027
13 *24:6 *24:16 0.159961
14 *24:6 *24:5 0.959766
15 *24:15 *24:5 6.00027
16 *24:13 *24:15 0.959766
17 *24:8 *24:13 6.00027
18 *24:8 *24:7 0.159961
19 *24:14 *24:7 6.00027
20 *130:A1 *24:14 0.0973675
21 *24:12 *24 37.9826088
*END

*D_NET *25 0.00409642

*CONN
*P *25 O *C 0 0 *L 0
*I *165:A2 I *C 33.6 68.32 *L 0.00338 *D an03d1
*I *145:A2 I *C 30.8 69.44 *L 0.00602 *D nr13d1
*I *135:A1 I *C 17.08 67.52 *L 0.00628 *D xr02d1
*I *123:Q O *C 20.16 63.84 *L 0 *D dfnrq1

*CAP
1 *165:A2 6.96088e-05
2 *145:A2 6.96088e-05
3 *135:A1 2.90061e-05
4 *123:Q 6.96088e-05
5 *25:5 0.000172659
6 *25:6 0.000172659
7 *25:7 6.6236e-05
8 *25:8 6.6236e-05
9 *25:9 0.000261887
10 *25:10 0.00094058
11 *25:11 0.000893059
12 *25:12 0.000214352
13 *25:13 6.78578e-05
14 *25:14 0.000266968
15 *25:15 0.000273584
16 *25:16 7.44455e-05
17 *25:17 0.000194029
18 *25:18 0.000194029

*RES
1 *25:16 *145:A2 5.99987
2 *25:18 *165:A2 5.99987
3 *25:15 *25:16 0.16005
4 *25:17 *25:18 0.48015
5 *25:14 *25:15 0.799805
6 *25:9 *25:17 5.99987
7 *25:6 *123:Q 5.99987
8 *25:10 *25:14 5.99987
9 *25:10 *25:9 0.959855
10 *25:6 *25:5 0.799805
11 *25:11 *25:10 2.88001
12 *25:11 *25:5 5.99987
13 *25:12 *25:11 0.799805
14 *25:8 *25:12 5.99987
15 *25:8 *25:7 0.16005
16 *25:13 *25:7 5.99987
17 *135:A1 *25:13 0.0971892
18 *25:8 *25 29.2173901
*END

*D_NET *26 0.00500715

*CONN
*P *26 O *C 0 0 *L 0
*I *165:A3 I *C 34.16 69.44 *L 0.00344 *D an03d1
*I *164:A2 I *C 25.6 63.06 *L 0.005 *D nd12d1
*I *145:A3 I *C 31.36 68.32 *L 0.00622 *D nr13d1
*I *143:B2 I *C 24.95 69.045 *L 0.0043 *D oai21d1
*I *136:A2 I *C 29.37 62.84 *L 0.00482 *D oai22d1
*I *125:Q O *C 39.76 63.84 *L 0 *D dfnrq1

*CAP
1 *165:A3 6.96033e-05
2 *164:A2 6.96033e-05
3 *145:A3 6.96033e-05
4 *143:B2 6.96033e-05
5 *136:A2 6.96033e-05
6 *125:Q 6.96033e-05
7 *26:7 7.92432e-05
8 *26:8 0.000394479
9 *26:9 0.000319329
10 *26:10 3.40191e-05
11 *26:11 4.57057e-05
12 *26:12 0.000407972
13 *26:13 0.00056356
14 *26:14 0.000298201
15 *26:15 0.000277949
16 *26:16 0.000277949
17 *26:17 0.000384856
18 *26:18 0.000373178
19 *26:19 2.81458e-05
20 *26:20 3.98237e-05
21 *26:21 0.000466765
22 *26:22 0.000339933
23 *26:24 5.99376e-05
24 *26:25 9.92454e-05
25 *26:26 9.92454e-05

*RES
1 *26:20 *164:A2 6.00016
2 *26:11 *136:A2 6.00016
3 *26:20 *26:19 0.0399791
4 *26:11 *26:10 0.070081
5 *26:9 *26:19 0.0799582
6 *26:7 *143:B2 6.00016
7 *26:16 *125:Q 6.00016
8 *26:10 *26:18 0.0799582
9 *26:9 *26:8 1.40021
10 *26:8 *26:7 0.239875
11 *26:26 *165:A3 6.00016
12 *26:16 *26:15 1.2798
13 *26:18 *26:17 1.44019
14 *26:22 *26:8 6.00016
15 *26:25 *26:26 0.319833
16 *26:12 *26:15 6.00016
17 *26:21 *26:17 6.00016
18 *26:22 *26:21 1.2798
19 *26:13 *26:25 6.00016
20 *26:13 *26:12 1.6001
21 *26:21 *26:14 0.480219
22 *26:14 *26:13 0.800052
23 *26:24 *145:A3 6.00016
24 *26:24 *26:14 6.00016
25 *26:23 *26:24 0.158035
26 *26:9 *26 30.8243465
*END

*D_NET *27 0.00239008

*CONN
*P *27 O *C 0 0 *L 0
*I *167:A2 I *C 31.36 52.64 *L 0.00338 *D an03d1
*I *154:A2 I *C 28.56 51.52 *L 0.00602 *D nr13d1
*I *142:A1 I *C 23.24 53.44 *L 0.00628 *D xr02d1
*I *131:Q O *C 20.16 52.64 *L 0 *D dfnrq1

*CAP
1 *167:A2 6.9604e-05
2 *154:A2 6.9604e-05
3 *142:A1 2.90119e-05
4 *131:Q 6.9604e-05
5 *27:5 0.00057493
6 *27:6 0.000382269
7 *27:7 0.000208426
8 *27:8 0.000137392
9 *27:9 0.000137392
10 *27:11 0.000220796
11 *27:12 0.000262046
12 *27:13 6.78581e-05
13 *27:14 0.000101204
14 *27:15 5.99362e-05

*RES
1 *27:13 *142:A1 0.0973675
2 *27:11 *131:Q 6.00008
3 *27:14 *27:13 6.00008
4 *27:9 *154:A2 6.00008
5 *27:11 *27:12 0.800191
6 *27:12 *27:14 0.319922
7 *27:9 *27:8 0.319922
8 *27:6 *27:12 6.00008
9 *27:5 *27:8 6.00008
10 *27:6 *27:5 1.6
11 *27:5 *27:7 0.800191
12 *27:15 *167:A2 6.00008
13 *27:15 *27:7 6.00008
14 *27:10 *27:15 0.158029
15 *131:Q *27 25.3217392
*END

*D_NET *28 0.00605227

*CONN
*P *28 O *C 0 0 *L 0
*I *167:A3 I *C 31.92 51.52 *L 0.00344 *D an03d1
*I *166:A2 I *C 31.76 46.7 *L 0.005 *D nd12d1
*I *154:A3 I *C 29.12 52.64 *L 0.00622 *D nr13d1
*I *152:B2 I *C 27.69 46.645 *L 0.0043 *D oai21d1
*I *147:A2 I *C 37.77 46.92 *L 0.00482 *D oai22d1
*I *133:Q O *C 49.84 52.64 *L 0 *D dfnrq1

*CAP
1 *167:A3 6.96109e-05
2 *166:A2 6.96109e-05
3 *154:A3 6.96109e-05
4 *152:B2 6.96109e-05
5 *147:A2 1.96641e-05
6 *133:Q 6.96109e-05
7 *28:7 0.000160946
8 *28:8 0.000160946
9 *28:9 8.36192e-05
10 *28:10 9.53053e-05
11 *28:11 0.000181977
12 *28:12 0.000181977
13 *28:13 0.000258704
14 *28:14 0.000125401
15 *28:15 6.65957e-05
16 *28:16 0.00122732
17 *28:17 0.000622022
18 *28:18 0.000197708
19 *28:19 0.000307584
20 *28:20 0.000227804
21 *28:21 0.000108789
22 *28:22 0.0001154
23 *28:23 0.000809617
24 *28:24 0.000137386
25 *28:25 0.000351575
26 *28:26 0.000263892

*RES
1 *28:11 *133:Q 5.99995
2 *28:12 *28:11 0.639921
3 *28:10 *166:A2 5.99995
4 *147:A2 *28:15 0.0974479
5 *28:21 *28:12 5.99995
6 *28:10 *28:9 0.319961
7 *28:8 *28:15 5.99995
8 *28:22 *28:21 0.319961
9 *28:9 *28:14 0.0800888
10 *28:24 *167:A3 5.99995
11 *28:8 *28:7 0.800099
12 *28:23 *28:22 0.160178
13 *28:14 *28:13 0.559832
14 *28:13 *28:24 0.480138
15 *28:16 *28:7 5.99995
16 *28:16 *28:23 3.03982
17 *28:17 *28:13 5.99995
18 *28:17 *28:16 1.75998
19 *28:26 *154:A3 5.99995
20 *28:18 *28:17 0.800099
21 *28:25 *28:26 0.800099
22 *28:25 *28:18 5.99995
23 *28:19 *28:25 0.480138
24 *28:20 *28:19 0.839946
25 *152:B2 *28:20 5.99995
26 *152:B2 *28 25.8556519
*END

*D_NET *29 0.00414214

*CONN
*P *29 O *C 0 0 *L 0
*I *173:A2 I *C 31.92 34.72 *L 0.00338 *D an03d1
*I *162:A2 I *C 32.48 40.32 *L 0.00602 *D nr13d1
*I *151:A1 I *C 21.56 33.92 *L 0.00628 *D xr02d1
*I *140:Q O *C 21.28 30.24 *L 0 *D dfnrq1

*CAP
1 *173:A2 6.95978e-05
2 *162:A2 6.95978e-05
3 *151:A1 2.90086e-05
4 *140:Q 7.12969e-05
5 *29:5 0.000129324
6 *29:6 0.000179377
7 *29:7 0.000172533
8 *29:8 6.78607e-05
9 *29:9 0.000172533
10 *29:10 0.00062208
11 *29:11 0.000148916
12 *29:12 0.00062208
13 *29:13 0.000153178
14 *29:14 0.000156377
15 *29:15 0.000253398
16 *29:16 0.000304486
17 *29:17 0.000321211
18 *29:18 0.000314585
19 *29:19 0.000160648
20 *29:20 0.000124055

*RES
1 *29:18 *162:A2 6.00004
2 *29:17 *29:18 0.960039
3 *29:17 *29:20 0.159961
4 *29:19 *29:20 0.640117
5 *29:16 *173:A2 6.00004
6 *29:16 *29:19 0.319922
7 *29:15 *29:16 0.960039
8 *29:14 *29:15 6.00004
9 *29:13 *29:14 0.389648
10 *151:A1 *29:8 0.0973438
11 *29:12 *29:13 0.194688
12 *29:9 *29:8 6.00004
13 *29:10 *29:12 2.72699
14 *29:7 *29:9 0.640117
15 *29:10 *29:11 0.194688
16 *29:6 *29:7 6.00004
17 *29:6 *29:11 0.389648
18 *29:5 *29:6 0.194688
19 *140:Q *29:5 0.389648
20 *140:Q *29 17.9200001
*END

*D_NET *30 0.00808526

*CONN
*P *30 O *C 0 0 *L 0
*I *173:A3 I *C 32.48 35.84 *L 0.00344 *D an03d1
*I *172:A2 I *C 36.24 35.5 *L 0.005 *D nd12d1
*I *162:A3 I *C 33.04 41.44 *L 0.00622 *D nr13d1
*I *159:B2 I *C 28.81 35.445 *L 0.0043 *D oai21d1
*I *156:A2 I *C 42.25 35.72 *L 0.00482 *D oai22d1
*I *141:Q O *C 55.44 34.72 *L 0 *D dfnrq1

*CAP
1 *173:A3 3.78998e-05
2 *172:A2 6.95937e-05
3 *162:A3 6.95937e-05
4 *159:B2 6.95937e-05
5 *156:A2 9.83228e-05
6 *141:Q 6.95937e-05
7 *30:7 0.000456628
8 *30:8 0.000456628
9 *30:9 0.00050195
10 *30:10 0.000109896
11 *30:11 0.000407829
12 *30:12 0.000137173
13 *30:13 0.000399599
14 *30:14 0.000387924
15 *30:15 0.000339054
16 *30:16 0.000252948
17 *30:17 0.000373549
18 *30:18 0.000373549
19 *30:19 0.000527898
20 *30:20 0.00067002
21 *30:21 0.000244013
22 *30:24 8.48375e-05
23 *30:25 5.99424e-05
24 *30:26 3.88711e-05
25 *30:27 2.71852e-05
26 *30:28 0.000136816
27 *30:29 0.000588014
28 *30:30 0.00014343
29 *30:31 0.000588014
30 *30:32 0.000155771
31 *30:33 5.99424e-05
32 *30:34 0.000149156

*RES
1 *30:23 *30:33 0.157896
2 *30:33 *141:Q 6.00003
3 *30:34 *30:33 6.00003
4 *30:32 *30:34 0.480166
5 *30:31 *30:32 0.159942
6 *30:29 *30:31 2.40015
7 *30:29 *30:30 0.159942
8 *30:28 *30:30 0.480166
9 *30:26 *172:A2 6.00003
10 *156:A2 *30:12 0.486987
11 *30:10 *30:28 6.00003
12 *30:24 *173:A3 0.194727
13 *30:18 *159:B2 6.00003
14 *30:26 *30:27 0.0399002
15 *30:9 *30:12 6.00003
16 *30:10 *30:9 0.319884
17 *30:8 *30:24 6.00003
18 *30:18 *30:17 1.64
19 *30:14 *30:27 0.0801414
20 *30:9 *30:11 1.6001
21 *30:8 *30:7 1.6001
22 *30:16 *30:17 6.00003
23 *30:14 *30:13 1.64
24 *30:19 *30:11 6.00003
25 *30:15 *30:7 6.00003
26 *30:16 *30:15 0.959992
27 *30:20 *30:13 6.00003
28 *30:20 *30:19 2.23987
29 *30:15 *30:21 0.319884
30 *30:21 *30:20 0.80005
31 *30:25 *162:A3 6.00003
32 *30:25 *30:21 6.00003
33 *30:22 *30:25 0.157896
34 *159:B2 *30 22.3495655
*END

*D_NET *31 0.00380511

*CONN
*P *31 O *C 0 0 *L 0
*I *176:A1 I *C 35.28 24.64 *L 0.003 *D nr13d1
*I *168:A2 I *C 34.39 19.015 *L 0.00472 *D nr03d1
*I *161:A1 I *C 27.16 19.84 *L 0.00628 *D xr02d1
*I *149:Q O *C 26.32 12.32 *L 0 *D dfnrq1

*CAP
1 *176:A1 7.57923e-05
2 *168:A2 1.67853e-05
3 *161:A1 6.10495e-05
4 *149:Q 6.96044e-05
5 *31:5 0.00078742
6 *31:6 0.000440431
7 *31:7 9.98949e-05
8 *31:8 0.000569391
9 *31:9 0.000362765
10 *31:10 5.56306e-05
11 *31:11 0.000325962
12 *31:12 0.000614424
13 *31:13 0.000325962

*RES
1 *31:10 *168:A2 0.0834668
2 *31:11 *31:10 5.99997
3 *31:11 *31:13 1.44006
4 *31:12 *31:13 5.99997
5 *31:12 *176:A1 0.389648
6 *31:8 *31:12 2.72692
7 *31:7 *161:A1 0.292236
8 *31:9 *31:8 5.99997
9 *31:5 *31:7 5.99997
10 *31:5 *31:9 1.44006
11 *31:6 *31:5 2.0799
12 *149:Q *31:6 5.99997
13 *149:Q *31 13.4399996
*END

*D_NET *32 0.00470276

*CONN
*P *32 O *C 0 0 *L 0
*I *203:Q O *C 44.8 14 *L 0 *D dfnrb1
*I *179:A2 I *C 45.92 17.92 *L 0.00381 *D an02d1
*I *169:A I *C 51.8 18.305 *L 0.00463 *D aoi21d1
*I *168:A1 I *C 35 18.34 *L 0.00429 *D nr03d1

*CAP
1 *203:Q 6.95995e-05
2 *179:A2 6.95995e-05
3 *169:A 6.95995e-05
4 *168:A1 1.39984e-05
5 *32:5 0.000133016
6 *32:6 0.000121336
7 *32:7 0.000108902
8 *32:8 0.000115521
9 *32:9 0.000386729
10 *32:10 0.000386729
11 *32:11 0.000235231
12 *32:12 0.000228606
13 *32:13 6.30297e-05
14 *32:14 0.000124526
15 *32:15 0.000111908
16 *32:16 0.000111908
17 *32:17 0.00040201
18 *32:18 0.00040201
19 *32:19 0.000125072
20 *32:20 0.00025818
21 *32:21 5.28529e-05
22 *32:22 0.000173177
23 *32:23 0.000258989
24 *32:24 5.06323e-05
25 *32:25 3.89527e-05
26 *32:17 *62:11 0.00014228
27 *32:18 *62:9 0.00014228
28 *32:25 *62:5 8.89e-06
29 *32:24 *62:6 8.89e-06
30 *32:5 *62:5 2.114e-05
31 *32:6 *62:6 2.114e-05
32 *32:19 *62:12 0.00012301
33 *32:20 *62:13 0.00012301

*RES
1 *32:24 *169:A 6.00004
2 *32:24 *32:25 0.120039
3 *32:6 *32:25 0.0801172
4 *32:6 *32:5 0.479883
5 *32:17 *32:5 6.00004
6 *32:13 *179:A2 6.00004
7 *32:18 *32:17 1.92008
8 *32:14 *32:13 0.134258
9 *32:19 *32:18 6.00004
10 *32:22 *203:Q 6.00004
11 *32:20 *32:14 0.400039
12 *32:20 *32:19 0.960039
13 *32:22 *32:23 0.640117
14 *32:23 *32:20 0.319922
15 *32:7 *32:23 6.00004
16 *32:8 *32:7 0.479883
17 *32:9 *32:8 0.159961
18 *32:10 *32:9 1.43992
19 *32:10 *32:11 0.159961
20 *32:12 *32:11 0.800078
21 *32:16 *32:12 6.00004
22 *32:16 *32:15 0.640117
23 *32:21 *32:15 6.00004
24 *168:A1 *32:21 0.0730078
25 *32:16 *32 17.9200001
*END

*D_NET *33 0.00122225

*CONN
*P *33 O *C 0 0 *L 0
*I *200:Q O *C 63.28 17.36 *L 0 *D dfnrb1
*I *182:A2 I *C 62.505 24.84 *L 0.00464 *D nd03d1

*CAP
1 *200:Q 6.95981e-05
2 *182:A2 9.15574e-05
3 *33:3 0.000196848
4 *33:4 0.000203468
5 *33:5 0.00026849
6 *33:6 0.000261869
7 *33:7 0.000130408

*RES
1 *33:6 *200:Q 5.99998
2 *33:6 *33:5 0.95998
3 *33:5 *33:4 0.160068
4 *33:4 *33:3 0.799912
5 *33:7 *33:3 5.99998
6 *182:A2 *33:7 0.438261
7 *200:Q *33 28.0486946
*END

*D_NET *34 0.00143985

*CONN
*P *34 O *C 0 0 *L 0
*I *195:A1 I *C 59.08 53.44 *L 0.00628 *D xr02d1
*I *184:A2 I *C 61.32 46.81 *L 0.00489 *D xr02d1
*I *175:Q O *C 59.36 45.92 *L 0 *D dfnrq1

*CAP
1 *195:A1 2.90098e-05
2 *184:A2 1.89488e-05
3 *175:Q 6.96036e-05
4 *34:4 0.000105138
5 *34:5 0.00054537
6 *34:6 6.78644e-05
7 *34:7 0.00039041
8 *34:8 6.58921e-05
9 *34:9 0.000147621

*RES
1 *34:8 *184:A2 0.0972249
2 *34:4 *175:Q 6
3 *34:9 *34:8 6
4 *34:4 *34:5 0.320172
5 *34:5 *34:9 0.479978
6 *34:5 *34:7 1.91991
7 *34:6 *34:7 6
8 *195:A1 *34:6 0.0972249
9 *175:Q *34 36.6191292
*END

*D_NET *35 0.00400005